Version 4
SHEET 1 1528 680
WIRE -240 -192 -688 -192
WIRE -240 -128 -240 -192
WIRE 608 -128 -48 -128
WIRE -688 -112 -688 -192
WIRE 0 -32 -48 -32
WIRE 608 -16 608 -128
WIRE 1232 -16 608 -16
WIRE 1360 -16 1232 -16
WIRE -688 32 -688 -32
WIRE -544 32 -688 32
WIRE -240 32 -240 -48
WIRE -240 32 -544 32
WIRE 528 48 480 48
WIRE 640 48 528 48
WIRE 736 48 640 48
WIRE 1232 64 1232 48
WIRE 1280 64 1232 64
WIRE 1360 64 1280 64
WIRE -544 96 -544 32
WIRE 1280 96 1280 64
WIRE 640 112 640 48
WIRE 736 112 736 48
WIRE 640 192 640 176
WIRE 688 192 640 192
WIRE 608 240 608 -16
WIRE 528 256 528 48
WIRE 576 256 528 256
WIRE 688 272 688 192
WIRE 688 272 640 272
WIRE 736 272 736 192
WIRE 736 272 688 272
WIRE 1024 272 736 272
WIRE 1168 272 1104 272
WIRE 1168 304 1168 272
WIRE 1232 304 1168 304
WIRE -208 320 -352 320
WIRE 0 320 0 -32
WIRE 0 320 -144 320
WIRE 64 320 0 320
WIRE 224 320 144 320
WIRE 384 320 224 320
WIRE 576 320 576 288
WIRE 576 320 384 320
WIRE -352 368 -352 320
WIRE 480 368 480 48
WIRE 384 384 384 320
WIRE 1168 384 1168 304
WIRE 224 400 224 320
WIRE -352 512 -352 448
WIRE 224 512 224 464
WIRE 224 512 -352 512
WIRE 384 512 384 464
WIRE 384 512 224 512
WIRE 480 512 480 448
WIRE 480 512 384 512
WIRE 608 512 608 304
WIRE 608 512 480 512
WIRE 992 512 608 512
WIRE 1168 512 1168 448
WIRE 1168 512 992 512
WIRE 992 544 992 512
FLAG 992 544 0
FLAG 1280 96 0
FLAG 1232 304 ACD
IOPIN 1232 304 Out
FLAG -544 96 0
SYMBOL res 160 304 R90
WINDOW 0 0 56 VBottom 2
WINDOW 3 32 56 VTop 2
SYMATTR InstName R1
SYMATTR Value 10k
SYMBOL res 400 480 R180
WINDOW 0 46 108 Left 2
WINDOW 3 50 55 Left 2
SYMATTR InstName R2
SYMATTR Value 100k
SYMBOL res 1008 288 R270
WINDOW 0 32 56 VTop 2
WINDOW 3 -23 58 VBottom 2
SYMATTR InstName R3
SYMATTR Value 1k
SYMBOL res 720 96 R0
SYMATTR InstName R4
SYMATTR Value 100k
SYMBOL cap 208 400 R0
SYMATTR InstName C1
SYMATTR Value 0
SYMBOL cap 1152 384 R0
SYMATTR InstName C2
SYMATTR Value 0
SYMBOL cap 624 112 R0
SYMATTR InstName C3
SYMATTR Value 0
SYMBOL OpAmps\\LTC1050 608 208 R0
SYMATTR InstName U1
SYMBOL res 464 352 R0
SYMATTR InstName R5
SYMATTR Value 1k
SYMBOL voltage 1360 -32 R0
WINDOW 0 26 0 Left 2
WINDOW 123 0 0 Left 0
WINDOW 39 0 0 Left 0
SYMATTR InstName V1
SYMATTR Value 5
SYMBOL cap 1216 -16 R0
SYMATTR InstName C4
SYMATTR Value 100n
SYMBOL voltage -352 352 R0
WINDOW 123 0 0 Left 0
WINDOW 39 0 0 Left 0
SYMATTR InstName V2
SYMATTR Value SINE(0 325 50)
SYMBOL cap -144 304 R90
WINDOW 0 0 32 VBottom 2
WINDOW 3 32 32 VTop 2
SYMATTR InstName C5
SYMATTR Value 1p
SYMBOL voltage -688 -128 R0
WINDOW 123 0 0 Left 0
WINDOW 39 0 0 Left 0
SYMATTR InstName V3
SYMATTR Value PULSE(0 1 0.2 0.1 0.1 20)
SYMBOL capteur -80 -48 R0
SYMATTR InstName X1
TEXT -424 568 Left 2 !.tran 2
TEXT 1288 552 Left 2 !;ac dec 100 0.1 0.1G
TEXT -656 296 Left 2 !.param G0 10n
TEXT -648 344 Left 2 !.param G1 10n
TEXT -640 384 Left 2 !.param R1 100k
